<?xml version="1.0" encoding="UTF-8"?>
<routes>
  <trip id="1385596922620000431" depart="122" fromLonLat="-8.63037,41.154732" toLonLat="-8.610921,41.145885" />
  <trip id="1385596968620000184" depart="168" fromLonLat="-8.611119,41.149485" toLonLat="-8.614296,41.171184" />
  <trip id="1385596998620000022" depart="198" fromLonLat="-8.600175,41.182704" toLonLat="-8.624772,41.162166" />
  <trip id="1385597050620000440" depart="250" fromLonLat="-8.591256,41.162715" toLonLat="-8.611326,41.150484" />
  <trip id="1385597067620000518" depart="267" fromLonLat="-8.59986,41.175441" toLonLat="-8.599266,41.166144" />
  <trip id="1385597074620000467" depart="274" fromLonLat="-8.628867,41.160942" toLonLat="-8.647353,41.157585" />
  <trip id="1385597077620000081" depart="277" fromLonLat="-8.62884,41.16096" toLonLat="-8.630766,41.152653" />
  <trip id="1385597090620000038" depart="290" fromLonLat="-8.627778,41.175432" toLonLat="-8.57556,41.232438" />
  <trip id="1385597100620000005" depart="300" fromLonLat="-8.608842,41.147883" toLonLat="-8.631531,41.180238" />
  <trip id="1385597117620000610" depart="317" fromLonLat="-8.647452,41.15106" toLonLat="-8.647515,41.151132" />
  <trip id="1385597194620000308" depart="394" fromLonLat="-8.609391,41.151402" toLonLat="-8.609895,41.174541" />
  <trip id="1385597230620000112" depart="430" fromLonLat="-8.609544,41.151276" toLonLat="-8.607708,41.173839" />
  <trip id="1385597271620000598" depart="471" fromLonLat="-8.65512,41.151465" toLonLat="-8.667882,41.148756" />
  <trip id="1385597277620000398" depart="477" fromLonLat="-8.64945,41.154363" toLonLat="-8.633862,41.158638" />
  <trip id="1385597297620000529" depart="497" fromLonLat="-8.65926,41.153319" toLonLat="-8.63964,41.159583" />
  <trip id="1385597308620000680" depart="508" fromLonLat="-8.61408,41.141133" toLonLat="-8.610192,41.153535" />
  <trip id="1385597326620000395" depart="526" fromLonLat="-8.614656,41.140377" toLonLat="-8.640405,41.161599" />
  <trip id="1385597356620000472" depart="556" fromLonLat="-8.614143,41.149323" toLonLat="-8.681796,41.160915" />
  <trip id="1385597373620000325" depart="573" fromLonLat="-8.619948,41.147991" toLonLat="-8.607285,41.150718" />
  <trip id="1385597436620000224" depart="636" fromLonLat="-8.61255,41.146056" toLonLat="-8.613693,41.141295" />
  <trip id="1385597448620000381" depart="648" fromLonLat="-8.585595,41.17644" toLonLat="-8.611578,41.146119" />
  <trip id="1385597449620000455" depart="649" fromLonLat="-8.61111,41.149539" toLonLat="-8.62335,41.157045" />
  <trip id="1385597538620000392" depart="738" fromLonLat="-8.628399,41.160222" toLonLat="-8.649864,41.154012" />
  <trip id="1385597572620000595" depart="772" fromLonLat="-8.621082,41.160996" toLonLat="-8.654229,41.153508" />
  <trip id="1385597614620000688" depart="814" fromLonLat="-8.571294,41.157819" toLonLat="-8.571186,41.158179" />
  <trip id="1385597640620000657" depart="840" fromLonLat="-8.636175,41.185008" toLonLat="-8.611299,41.150367" />
  <trip id="1385597706620000086" depart="906" fromLonLat="-8.605467,41.107266" toLonLat="-8.596557,41.066046" />
  <trip id="1385597708620000136" depart="908" fromLonLat="-8.619903,41.148" toLonLat="-8.59293,41.146353" />
  <trip id="1385597719620000042" depart="919" fromLonLat="-8.607879,41.162427" toLonLat="-8.640972,41.161329" />
  <trip id="1385597744620000233" depart="944" fromLonLat="-8.624691,41.164506" toLonLat="-8.628741,41.166891" />
  <trip id="1385597756620000235" depart="956" fromLonLat="-8.609778,41.140791" toLonLat="-8.590338,41.09004" />
  <trip id="1385597767620000031" depart="967" fromLonLat="-8.628345,41.157495" toLonLat="-8.589474,41.163237" />
  <trip id="1385597801620000242" depart="1001" fromLonLat="-8.569692,41.204457" toLonLat="-8.606736,41.152239" />
  <trip id="1385597837620000664" depart="1037" fromLonLat="-8.61642,41.147199" toLonLat="-8.604216,41.150961" />
  <trip id="1385597868620000571" depart="1068" fromLonLat="-8.600211,41.182713" toLonLat="-8.577648,41.190336" />
  <trip id="1385597869620000011" depart="1069" fromLonLat="-8.636733,41.150736" toLonLat="-8.617599,41.146047" />
  <trip id="1385597996620000381" depart="1196" fromLonLat="-8.61093,41.147784" toLonLat="-8.615817,41.176629" />
  <trip id="1385598041620000345" depart="1241" fromLonLat="-8.611056,41.149431" toLonLat="-8.611155,41.149422" />
  <trip id="1385598068620000254" depart="1268" fromLonLat="-8.630145,41.154813" toLonLat="-8.656416,41.153256" />
  <trip id="1385598072620000435" depart="1272" fromLonLat="-8.635005,41.151132" toLonLat="-8.641305,41.16006" />
  <trip id="1385598252620000157" depart="1452" fromLonLat="-8.679654,41.156712" toLonLat="-8.67402,41.154174" />
  <trip id="1385598257620000268" depart="1457" fromLonLat="-8.615484,41.140674" toLonLat="-8.651259,41.191569" />
  <trip id="1385598311620000395" depart="1511" fromLonLat="-8.630199,41.154876" toLonLat="-8.614395,41.148243" />
  <trip id="1385598381620000603" depart="1581" fromLonLat="-8.641611,41.153904" toLonLat="-8.63676,41.159241" />
  <trip id="1385598390620000280" depart="1590" fromLonLat="-8.601948,41.181795" toLonLat="-8.571645,41.202828" />
  <trip id="1385598405620000664" depart="1605" fromLonLat="-8.605179,41.161977" toLonLat="-8.640603,41.161257" />
  <trip id="1385598441620000080" depart="1641" fromLonLat="-8.589276,41.169717" toLonLat="-8.589249,41.169861" />
  <trip id="1385598441620000476" depart="1641" fromLonLat="-8.604225,41.16114" toLonLat="-8.621091,41.156631" />
  <trip id="1385598455620000680" depart="1655" fromLonLat="-8.609931,41.153751" toLonLat="-8.586675,41.169996" />
  <trip id="1385598463620000022" depart="1663" fromLonLat="-8.618409,41.153229" toLonLat="-8.616681,41.161005" />
  <trip id="1385598466620000080" depart="1666" fromLonLat="-8.588745,41.170743" toLonLat="-8.587332,41.172876" />
  <trip id="1385598488620000431" depart="1688" fromLonLat="-8.627229,41.152005" toLonLat="-8.616924,41.152626" />
  <trip id="1385598502620000080" depart="1702" fromLonLat="-8.586162,41.17482" toLonLat="-8.581131,41.180427" />
  <trip id="1385598508620000105" depart="1708" fromLonLat="-8.61156,41.150358" toLonLat="-8.6499,41.169438" />
  <trip id="1385598541620000640" depart="1741" fromLonLat="-8.606961,41.152167" toLonLat="-8.613837,41.123466" />
  <trip id="1385598542620000624" depart="1742" fromLonLat="-8.610831,41.145561" toLonLat="-8.610372,41.153301" />
  <trip id="1385598546620000554" depart="1746" fromLonLat="-8.610867,41.145651" toLonLat="-8.610246,41.153121" />
  <trip id="1385598670620000080" depart="1870" fromLonLat="-8.570322,41.179104" toLonLat="-8.567109,41.176683" />
  <trip id="1385598704620000311" depart="1904" fromLonLat="-8.606925,41.150241" toLonLat="-8.60166,41.16393" />
  <trip id="1385598746620000904" depart="1946" fromLonLat="-8.610975,41.145804" toLonLat="-8.589249,41.124231" />
  <trip id="1385598788620000632" depart="1988" fromLonLat="-8.604342,41.18013" toLonLat="-8.582508,41.17887" />
  <trip id="1385598813620000611" depart="2013" fromLonLat="-8.614107,41.14125" toLonLat="-8.603955,41.147037" />
  <trip id="1385598830620000671" depart="2030" fromLonLat="-8.615583,41.140665" toLonLat="-8.654823,41.156784" />
  <trip id="1385598851620000003" depart="2051" fromLonLat="-8.585802,41.148639" toLonLat="-8.597727,41.157648" />
  <trip id="1385598865620000675" depart="2065" fromLonLat="-8.581104,41.144499" toLonLat="-8.554707,41.095854" />
  <trip id="1385598928620000483" depart="2128" fromLonLat="-8.616366,41.147154" toLonLat="-8.607339,41.183838" />
  <trip id="1385598962620000395" depart="2162" fromLonLat="-8.614692,41.146623" toLonLat="-8.641116,41.144166" />
  <trip id="1385599077620000514" depart="2277" fromLonLat="-8.610822,41.145732" toLonLat="-8.640873,41.160132" />
  <trip id="1385599114620000680" depart="2314" fromLonLat="-8.586675,41.169996" toLonLat="-8.590437,41.162778" />
  <trip id="1385599125620000089" depart="2325" fromLonLat="-8.67411,41.153868" toLonLat="-8.648019,41.187789" />
  <trip id="1385599128620000472" depart="2328" fromLonLat="-8.610966,41.150637" toLonLat="-8.604612,41.157162" />
  <trip id="1385599156620000392" depart="2356" fromLonLat="-8.630172,41.157378" toLonLat="-8.603523,41.184045" />
  <trip id="1385599187620000488" depart="2387" fromLonLat="-8.622162,41.16798" toLonLat="-8.598087,41.162157" />
  <trip id="1385599188620000356" depart="2388" fromLonLat="-8.605674,41.153562" toLonLat="-8.615178,41.14161" />
  <trip id="1385599251620000569" depart="2451" fromLonLat="-8.595324,41.15727" toLonLat="-8.611722,41.165307" />
  <trip id="1385599257620000601" depart="2457" fromLonLat="-8.614737,41.141295" toLonLat="-8.61408,41.14782" />
  <trip id="1385599285620000151" depart="2485" fromLonLat="-8.649477,41.154354" toLonLat="-8.678214,41.17851" />
  <trip id="1385599388620000376" depart="2588" fromLonLat="-8.591211,41.162652" toLonLat="-8.610831,41.147046" />
  <trip id="1385599432620000589" depart="2632" fromLonLat="-8.630532,41.154849" toLonLat="-8.61012,41.157135" />
  <trip id="1385599470620000333" depart="2670" fromLonLat="-8.598564,41.148486" toLonLat="-8.616078,41.1435" />
  <trip id="1385599484620000015" depart="2684" fromLonLat="-8.585721,41.14863" toLonLat="-8.625699,41.15961" />
  <trip id="1385599496620000372" depart="2696" fromLonLat="-8.673372,41.16033" toLonLat="-8.604081,41.151465" />
  <trip id="1385599507620000560" depart="2707" fromLonLat="-8.585775,41.14863" toLonLat="-8.649171,41.166756" />
  <trip id="1385599524620000680" depart="2724" fromLonLat="-8.590437,41.162778" toLonLat="-8.590446,41.162769" />
  <trip id="1385599544620000393" depart="2744" fromLonLat="-8.620902,41.15016" toLonLat="-8.602515,41.155497" />
  <trip id="1385599549620000008" depart="2749" fromLonLat="-8.585658,41.148513" toLonLat="-8.613909,41.150646" />
  <trip id="1385599550620000680" depart="2750" fromLonLat="-8.590446,41.162778" toLonLat="-8.689995,41.195007" />
  <trip id="1385599551620000031" depart="2751" fromLonLat="-8.613828,41.142987" toLonLat="-8.606745,41.151942" />
  <trip id="1385599582620000611" depart="2782" fromLonLat="-8.610984,41.147937" toLonLat="-8.627364,41.155578" />
  <trip id="1385599628620000598" depart="2828" fromLonLat="-8.653554,41.155659" toLonLat="-8.640153,41.166747" />
  <trip id="1385599650620000570" depart="2850" fromLonLat="-8.649567,41.167278" toLonLat="-8.620182,41.165883" />
  <trip id="1385599721620000657" depart="2921" fromLonLat="-8.628831,41.161014" toLonLat="-8.672382,41.189184" />
  <trip id="1385599773620000423" depart="2973" fromLonLat="-8.612532,41.145993" toLonLat="-8.598501,41.15826" />
  <trip id="1385599780620000398" depart="2980" fromLonLat="-8.630712,41.154912" toLonLat="-8.639208,41.171778" />
  <trip id="1385599794620000504" depart="2994" fromLonLat="-8.600166,41.182758" toLonLat="-8.608545,41.170617" />
  <trip id="1385599817620000388" depart="3017" fromLonLat="-8.6742,41.153859" toLonLat="-8.601858,41.157414" />
  <trip id="1385599826620000684" depart="3026" fromLonLat="-8.616312,41.147145" toLonLat="-8.681994,41.184576" />
  <trip id="1385599835620000013" depart="3035" fromLonLat="-8.649729,41.157666" toLonLat="-8.614431,41.145885" />
  <trip id="1385599850620000503" depart="3050" fromLonLat="-8.653833,41.176737" toLonLat="-8.613441,41.147478" />
  <trip id="1385599850620000595" depart="3050" fromLonLat="-8.626023,41.159259" toLonLat="-8.614089,41.146308" />
  <trip id="1385599872620000337" depart="3072" fromLonLat="-8.660925,41.171949" toLonLat="-8.693244,41.19165" />
  <trip id="1385599882620000387" depart="3082" fromLonLat="-8.628318,41.157423" toLonLat="-8.610354,41.153661" />
  <trip id="1385599916620000600" depart="3116" fromLonLat="-8.617635,41.146065" toLonLat="-8.682561,41.182587" />
  <trip id="1385599922620000009" depart="3122" fromLonLat="-8.62884,41.160969" toLonLat="-8.59833,41.165865" />
  <trip id="1385599938620000633" depart="3138" fromLonLat="-8.617491,41.146092" toLonLat="-8.608014,41.144841" />
  <trip id="1385600042620000367" depart="3242" fromLonLat="-8.63073,41.182047" toLonLat="-8.61642,41.14953" />
  <trip id="1385600050620000686" depart="3250" fromLonLat="-8.612433,41.145921" toLonLat="-8.61228,41.129172" />
  <trip id="1385600056620000574" depart="3256" fromLonLat="-8.649414,41.154399" toLonLat="-8.616096,41.14719" />
  <trip id="1385600107620000409" depart="3307" fromLonLat="-8.637552,41.174595" toLonLat="-8.611983,41.145507" />
  <trip id="1385600217620000140" depart="3417" fromLonLat="-8.617545,41.145804" toLonLat="-8.599401,41.144067" />
  <trip id="1385600257620000263" depart="3457" fromLonLat="-8.585739,41.148639" toLonLat="-8.55315,41.143158" />
  <trip id="1385600296620000569" depart="3496" fromLonLat="-8.597565,41.165253" toLonLat="-8.607645,41.134266" />
  <trip id="1385600305620000080" depart="3505" fromLonLat="-8.5671,41.167035" toLonLat="-8.569188,41.16762" />
  <trip id="1385600309620000010" depart="3509" fromLonLat="-8.582472,41.180571" toLonLat="-8.627616,41.179815" />
  <trip id="1385600318620000120" depart="3518" fromLonLat="-8.67402,41.153868" toLonLat="-8.535402,41.178213" />
  <trip id="1385600376620000022" depart="3576" fromLonLat="-8.616393,41.147154" toLonLat="-8.63163,41.163516" />
  <trip id="1385600413620000184" depart="3613" fromLonLat="-8.611065,41.147496" toLonLat="-8.658378,41.17833" />
  <trip id="1385600420620000363" depart="3620" fromLonLat="-8.619948,41.146839" toLonLat="-8.613081,41.145966" />
  <trip id="1385600425620000393" depart="3625" fromLonLat="-8.610957,41.150664" toLonLat="-8.602515,41.143248" />
  <trip id="1385600457620000080" depart="3657" fromLonLat="-8.580411,41.164092" toLonLat="-8.587251,41.167296" />
  <trip id="1385600511620000570" depart="3711" fromLonLat="-8.630226,41.157459" toLonLat="-8.631441,41.163687" />
  <trip id="1385600565620000080" depart="3765" fromLonLat="-8.597106,41.171814" toLonLat="-8.608887,41.177322" />
  <trip id="1385600583620000363" depart="3783" fromLonLat="-8.610426,41.149305" toLonLat="-8.597493,41.16114" />
  <trip id="1385600626620000356" depart="3826" fromLonLat="-8.607078,41.15034" toLonLat="-8.612667,41.172084" />
  <trip id="1385600637620000233" depart="3837" fromLonLat="-8.627211,41.167017" toLonLat="-8.561295,41.188374" />
  <trip id="1385600639620000360" depart="3839" fromLonLat="-8.600103,41.145849" toLonLat="-8.627103,41.152239" />
  <trip id="1385600862620000351" depart="4062" fromLonLat="-8.610903,41.145624" toLonLat="-8.638461,41.16636" />
  <trip id="1385600913620000473" depart="4113" fromLonLat="-8.600121,41.182686" toLonLat="-8.602488,41.15565" />
  <trip id="1385600927620000430" depart="4127" fromLonLat="-8.639919,41.159853" toLonLat="-8.616555,41.147181" />
  <trip id="1385600979620000601" depart="4179" fromLonLat="-8.616465,41.147172" toLonLat="-8.630775,41.149314" />
  <trip id="1385600991620000649" depart="4191" fromLonLat="-8.573544,41.170797" toLonLat="-8.582895,41.180832" />
  <trip id="1385600992620000101" depart="4192" fromLonLat="-8.656848,41.161518" toLonLat="-8.664822,41.152374" />
  <trip id="1385601084620000224" depart="4284" fromLonLat="-8.610426,41.147721" toLonLat="-8.613621,41.14593" />
  <trip id="1385601095620000431" depart="4295" fromLonLat="-8.63055,41.15484" toLonLat="-8.592156,41.160906" />
  <trip id="1385601161620000393" depart="4361" fromLonLat="-8.609985,41.15178" toLonLat="-8.616258,41.147244" />
  <trip id="1385601196620000179" depart="4396" fromLonLat="-8.613225,41.154435" toLonLat="-8.613216,41.162157" />
  <trip id="1385601197620000529" depart="4397" fromLonLat="-8.639676,41.159628" toLonLat="-8.659989,41.153931" />
  <trip id="1385601230620000231" depart="4430" fromLonLat="-8.628849,41.160978" toLonLat="-8.629884,41.167989" />
  <trip id="1385601252620000455" depart="4452" fromLonLat="-8.61255,41.145957" toLonLat="-8.553393,41.18382" />
  <trip id="1385601301620000664" depart="4501" fromLonLat="-8.659791,41.182038" toLonLat="-8.61381,41.147388" />
  <trip id="1385601303620000403" depart="4503" fromLonLat="-8.614359,41.149854" toLonLat="-8.60247,41.155938" />
  <trip id="1385601327620000678" depart="4527" fromLonLat="-8.585667,41.148639" toLonLat="-8.670195,41.23719" />
  <trip id="1385601329620000625" depart="4529" fromLonLat="-8.642106,41.177889" toLonLat="-8.616258,41.147226" />
  <trip id="1385601337620000195" depart="4537" fromLonLat="-8.614278,41.150007" toLonLat="-8.602668,41.155353" />
  <trip id="1385601339620000003" depart="4539" fromLonLat="-8.580168,41.159439" toLonLat="-8.595423,41.157396" />
  <trip id="1385601353620000112" depart="4553" fromLonLat="-8.614098,41.14998" toLonLat="-8.602533,41.155767" />
  <trip id="1385601482620000554" depart="4682" fromLonLat="-8.610993,41.14575" toLonLat="-8.610885,41.145309" />
  <trip id="1385601504620000472" depart="4704" fromLonLat="-8.610966,41.150556" toLonLat="-8.617284,41.142726" />
  <trip id="1385601595620000360" depart="4795" fromLonLat="-8.60949,41.15115" toLonLat="-8.62839,41.16042" />
  <trip id="1385601614620000305" depart="4814" fromLonLat="-8.607294,41.145525" toLonLat="-8.63775,41.143086" />
  <trip id="1385601683620000201" depart="4883" fromLonLat="-8.627247,41.151924" toLonLat="-8.612856,41.148225" />
  <trip id="1385601689620000031" depart="4889" fromLonLat="-8.614296,41.149926" toLonLat="-8.602569,41.155686" />
  <trip id="1385601701620000005" depart="4901" fromLonLat="-8.629776,41.179887" toLonLat="-8.651025,41.168952" />
  <trip id="1385601865620000129" depart="5065" fromLonLat="-8.613972,41.141214" toLonLat="-8.602587,41.155551" />
  <trip id="1385601885620000687" depart="5085" fromLonLat="-8.5869,41.179905" toLonLat="-8.578638,41.193945" />
  <trip id="1385601908620000324" depart="5108" fromLonLat="-8.613234,41.154417" toLonLat="-8.639505,41.172435" />
  <trip id="1385601960620000431" depart="5160" fromLonLat="-8.625501,41.164578" toLonLat="-8.670726,41.150745" />
  <trip id="1385601967620000067" depart="5167" fromLonLat="-8.614944,41.17095" toLonLat="-8.604567,41.158071" />
  <trip id="1385601979620000201" depart="5179" fromLonLat="-8.612901,41.148279" toLonLat="-8.609346,41.167746" />
  <trip id="1385602105620000595" depart="5305" fromLonLat="-8.629848,41.179986" toLonLat="-8.662608,41.181615" />
  <trip id="1385602176620000529" depart="5376" fromLonLat="-8.653473,41.154858" toLonLat="-8.634744,41.161149" />
  <trip id="1385602198620000011" depart="5398" fromLonLat="-8.612658,41.145849" toLonLat="-8.633772,41.167197" />
  <trip id="1385602271620000488" depart="5471" fromLonLat="-8.656776,41.161509" toLonLat="-8.601876,41.159763" />
  <trip id="1385602362620000393" depart="5562" fromLonLat="-8.609562,41.151096" toLonLat="-8.608662,41.15835" />
  <trip id="1385602393620000005" depart="5593" fromLonLat="-8.651034,41.168943" toLonLat="-8.603037,41.143428" />
  <trip id="1385602459620000129" depart="5659" fromLonLat="-8.602587,41.155542" toLonLat="-8.6139,41.14683" />
  <trip id="1385602462620000601" depart="5662" fromLonLat="-8.611497,41.15034" toLonLat="-8.581482,41.185116" />
  <trip id="1385602532620000517" depart="5732" fromLonLat="-8.602371,41.154156" toLonLat="-8.617356,41.156001" />
  <trip id="1385602564620000503" depart="5764" fromLonLat="-8.622369,41.176332" toLonLat="-8.55468,41.136759" />
  <trip id="1385602641620000015" depart="5841" fromLonLat="-8.618337,41.153121" toLonLat="-8.602551,41.155587" />
  <trip id="1385602753620000395" depart="5953" fromLonLat="-8.61264,41.145885" toLonLat="-8.597727,41.158854" />
  <trip id="1385602773620000598" depart="5973" fromLonLat="-8.668575,41.148684" toLonLat="-8.662338,41.147757" />
  <trip id="1385602885620000112" depart="6085" fromLonLat="-8.609508,41.151159" toLonLat="-8.630739,41.154489" />
  <trip id="1385602925620000577" depart="6125" fromLonLat="-8.619885,41.146758" toLonLat="-8.60256,41.130495" />
  <trip id="1385602975620000263" depart="6175" fromLonLat="-8.586315,41.149044" toLonLat="-8.658909,41.110731" />
  <trip id="1385603015620000195" depart="6215" fromLonLat="-8.609625,41.151186" toLonLat="-8.617437,41.260041" />
  <trip id="1385603137620000129" depart="6337" fromLonLat="-8.613855,41.146776" toLonLat="-8.629011,41.156442" />
  <trip id="1385603138620000621" depart="6338" fromLonLat="-8.591337,41.162751" toLonLat="-8.608131,41.147298" />
  <trip id="1385603159620000015" depart="6359" fromLonLat="-8.60256,41.155596" toLonLat="-8.614368,41.147253" />
  <trip id="1385603171620000233" depart="6371" fromLonLat="-8.625447,41.166954" toLonLat="-8.613099,41.15358" />
  <trip id="1385603193620000120" depart="6393" fromLonLat="-8.61336,41.183433" toLonLat="-8.611182,41.19453" />
  <trip id="1385603196620000231" depart="6396" fromLonLat="-8.617635,41.146146" toLonLat="-8.602389,41.154075" />
  <trip id="1385603201620000648" depart="6401" fromLonLat="-8.600103,41.182731" toLonLat="-8.643303,41.009922" />
  <trip id="1385603207620000406" depart="6407" fromLonLat="-8.598735,41.178969" toLonLat="-8.601345,41.18346" />
  <trip id="1385603245620000376" depart="6445" fromLonLat="-8.591346,41.162715" toLonLat="-8.614017,41.147667" />
  <trip id="1385603249620000483" depart="6449" fromLonLat="-8.616411,41.147118" toLonLat="-8.646102,41.154363" />
  <trip id="1385603263620000356" depart="6463" fromLonLat="-8.61165,41.150277" toLonLat="-8.638038,41.170536" />
  <trip id="1385603272620000488" depart="6472" fromLonLat="-8.602677,41.15547" toLonLat="-8.613081,41.148234" />
  <trip id="1385603334620000042" depart="6534" fromLonLat="-8.640513,41.161293" toLonLat="-8.607924,41.162319" />
  <trip id="1385603353620000344" depart="6553" fromLonLat="-8.616483,41.147145" toLonLat="-8.675703,41.179392" />
  <trip id="1385603364620000611" depart="6564" fromLonLat="-8.612604,41.145948" toLonLat="-8.629263,41.15673" />
  <trip id="1385603386620000595" depart="6586" fromLonLat="-8.609238,41.17806" toLonLat="-8.613126,41.183406" />
  <trip id="1385603417620000005" depart="6617" fromLonLat="-8.611659,41.148072" toLonLat="-8.666172,41.163156" />
  <trip id="1385603499620000004" depart="6699" fromLonLat="-8.619849,41.148027" toLonLat="-8.642736,41.174046" />
  <trip id="1385603531620000161" depart="6731" fromLonLat="-8.612145,41.172795" toLonLat="-8.608995,41.147262" />
  <trip id="1385603572620000273" depart="6772" fromLonLat="-8.603874,41.161563" toLonLat="-8.607663,41.148801" />
  <trip id="1385603603620000325" depart="6803" fromLonLat="-8.619804,41.148018" toLonLat="-8.602623,41.158125" />
  <trip id="1385603609620000011" depart="6809" fromLonLat="-8.613648,41.146839" toLonLat="-8.624412,41.179491" />
  <trip id="1385603670620000154" depart="6870" fromLonLat="-8.630676,41.154795" toLonLat="-8.629029,41.111982" />
  <trip id="1385603671620000589" depart="6871" fromLonLat="-8.630559,41.154696" toLonLat="-8.649837,41.154336" />
  <trip id="1385603696620000618" depart="6896" fromLonLat="-8.604801,41.161149" toLonLat="-8.604657,41.147217" />
  <trip id="1385603727620000610" depart="6927" fromLonLat="-8.670402,41.151087" toLonLat="-8.670456,41.151078" />
  <trip id="1385603754620000387" depart="6954" fromLonLat="-8.610327,41.153661" toLonLat="-8.630757,41.154408" />
  <trip id="1385603815620000616" depart="7015" fromLonLat="-8.600166,41.182722" toLonLat="-8.653473,41.178762" />
  <trip id="1385603815620000197" depart="7015" fromLonLat="-8.600085,41.182731" toLonLat="-8.607672,41.156109" />
  <trip id="1385603935620000601" depart="7135" fromLonLat="-8.602542,41.15556" toLonLat="-8.613918,41.147595" />
  <trip id="1385603951620000171" depart="7151" fromLonLat="-8.617554,41.146227" toLonLat="-8.608023,41.14728" />
  <trip id="1385604124620000161" depart="7324" fromLonLat="-8.61075,41.14782" toLonLat="-8.642016,41.153994" />
  <trip id="1385604125620000409" depart="7325" fromLonLat="-8.616393,41.147172" toLonLat="-8.628246,41.157297" />
  <trip id="1385604214620000345" depart="7414" fromLonLat="-8.611128,41.149449" toLonLat="-8.655138,41.152005" />
  <trip id="1385604340620000120" depart="7540" fromLonLat="-8.624745,41.177394" toLonLat="-8.62452,41.177646" />
  <trip id="1385604400620000446" depart="7600" fromLonLat="-8.611254,41.149539" toLonLat="-8.566524,41.166513" />
  <trip id="1385604476620000542" depart="7676" fromLonLat="-8.617563,41.146182" toLonLat="-8.60841,41.169708" />
  <trip id="1385604571620000503" depart="7771" fromLonLat="-8.628372,41.156838" toLonLat="-8.636697,41.175972" />
  <trip id="1385604607620000662" depart="7807" fromLonLat="-8.600193,41.182713" toLonLat="-8.604918,41.170869" />
  <trip id="1385604657620000008" depart="7857" fromLonLat="-8.586324,41.147073" toLonLat="-8.574831,41.162445" />
  <trip id="1385604662620000671" depart="7862" fromLonLat="-8.616294,41.147127" toLonLat="-8.614782,41.171472" />
  <trip id="1385604686620000436" depart="7886" fromLonLat="-8.639802,41.159853" toLonLat="-8.58942,41.163318" />
  <trip id="1385604690620000307" depart="7890" fromLonLat="-8.603064,41.14341" toLonLat="-8.610822,41.147739" />
  <trip id="1385604691620000574" depart="7891" fromLonLat="-8.644446,41.15322" toLonLat="-8.628156,41.200803" />
  <trip id="1385604739620000595" depart="7939" fromLonLat="-8.613207,41.183388" toLonLat="-8.605557,41.144274" />
  <trip id="1385604758620000031" depart="7958" fromLonLat="-8.614386,41.148333" toLonLat="-8.602443,41.155947" />
  <trip id="1385604793620000129" depart="7993" fromLonLat="-8.613864,41.146983" toLonLat="-8.604729,41.153454" />
  <trip id="1385605089620000304" depart="8289" fromLonLat="-8.615457,41.140746" toLonLat="-8.577873,41.161275" />
  <trip id="1385605151620000328" depart="8351" fromLonLat="-8.612532,41.14611" toLonLat="-8.567172,41.145552" />
  <trip id="1385605159620000031" depart="8359" fromLonLat="-8.602479,41.155947" toLonLat="-8.613297,41.147442" />
  <trip id="1385605172620000184" depart="8372" fromLonLat="-8.611011,41.149287" toLonLat="-8.612982,41.166846" />
  <trip id="1385605188620000423" depart="8388" fromLonLat="-8.612631,41.146056" toLonLat="-8.630685,41.153967" />
  <trip id="1385605223620000632" depart="8423" fromLonLat="-8.609427,41.183082" toLonLat="-8.643141,41.194422" />
  <trip id="1385605230620000038" depart="8430" fromLonLat="-8.613927,41.14746" toLonLat="-8.640594,41.15997" />
  <trip id="1385605286620000504" depart="8486" fromLonLat="-8.60004,41.182713" toLonLat="-8.602569,41.155605" />
  <trip id="1385605304620000179" depart="8504" fromLonLat="-8.607879,41.162391" toLonLat="-8.607456,41.145507" />
  <trip id="1385605316620000381" depart="8516" fromLonLat="-8.603523,41.18391" toLonLat="-8.602596,41.155695" />
  <trip id="1385605389620000664" depart="8589" fromLonLat="-8.61633,41.147217" toLonLat="-8.608437,41.147379" />
  <trip id="1385605497620000617" depart="8697" fromLonLat="-8.606394,41.144562" toLonLat="-8.601696,41.183568" />
  <trip id="1385605500620000483" depart="8700" fromLonLat="-8.616393,41.147181" toLonLat="-8.605431,41.150601" />
  <trip id="1385605614620000472" depart="8814" fromLonLat="-8.609472,41.151177" toLonLat="-8.611398,41.182767" />
  <trip id="1385605728620000359" depart="8928" fromLonLat="-8.649414,41.154327" toLonLat="-8.567586,41.162067" />
  <trip id="1385605771620000332" depart="8971" fromLonLat="-8.617581,41.146191" toLonLat="-8.615484,41.17185" />
  <trip id="1385605791620000624" depart="8991" fromLonLat="-8.610903,41.145525" toLonLat="-8.610138,41.153526" />
  <trip id="1385605794620000199" depart="8994" fromLonLat="-8.612865,41.148117" toLonLat="-8.641422,41.157063" />
  <trip id="1385605879620000011" depart="9079" fromLonLat="-8.627733,41.175468" toLonLat="-8.612937,41.179347" />
  <trip id="1385605898620000038" depart="9098" fromLonLat="-8.640927,41.15997" toLonLat="-8.607987,41.162436" />
  <trip id="1385605914620000393" depart="9114" fromLonLat="-8.611524,41.15043" toLonLat="-8.602479,41.155821" />
  <trip id="1385605960620000060" depart="9160" fromLonLat="-8.627931,41.157738" toLonLat="-8.547066,41.168322" />
  <trip id="1385606003620000338" depart="9203" fromLonLat="-8.628003,41.157747" toLonLat="-8.639937,41.166684" />
  <trip id="1385606178620000372" depart="9378" fromLonLat="-8.612613,41.145867" toLonLat="-8.61768,41.171157" />
  <trip id="1385606300620000009" depart="9500" fromLonLat="-8.601201,41.181768" toLonLat="-8.597556,41.164821" />
  <trip id="1385606316620000626" depart="9516" fromLonLat="-8.597916,41.162787" toLonLat="-8.603937,41.170023" />
  <trip id="1385606354620000307" depart="9554" fromLonLat="-8.61858,41.151339" toLonLat="-8.583363,41.15808" />
  <trip id="1385606479620000112" depart="9679" fromLonLat="-8.600616,41.169726" toLonLat="-8.602731,41.155191" />
  <trip id="1385606487620000235" depart="9687" fromLonLat="-8.604099,41.162292" toLonLat="-8.640558,41.16132" />
  <trip id="1385606579620000280" depart="9779" fromLonLat="-8.612127,41.172732" toLonLat="-8.610093,41.147676" />
  <trip id="1385606636620000476" depart="9836" fromLonLat="-8.604099,41.161149" toLonLat="-8.610156,41.154822" />
  <trip id="1385606666620000529" depart="9866" fromLonLat="-8.654031,41.18013" toLonLat="-8.659143,41.153985" />
  <trip id="1385606703620000013" depart="9903" fromLonLat="-8.619804,41.148036" toLonLat="-8.652924,41.150214" />
  <trip id="1385606713620000324" depart="9913" fromLonLat="-8.627256,41.151942" toLonLat="-8.543295,41.1417" />
  <trip id="1385606723620000010" depart="9923" fromLonLat="-8.600175,41.182704" toLonLat="-8.584767,41.181003" />
  <trip id="1385606730620000171" depart="9930" fromLonLat="-8.645454,41.008554" toLonLat="-8.572059,41.119119" />
  <trip id="1385606740620000201" depart="9940" fromLonLat="-8.616159,41.148612" toLonLat="-8.651079,41.161878" />
  <trip id="1385606771620000351" depart="9971" fromLonLat="-8.611641,41.150628" toLonLat="-8.617851,41.141115" />
  <trip id="1385606841620000671" depart="10041" fromLonLat="-8.61633,41.147163" toLonLat="-8.61075,41.167035" />
  <trip id="1385606883620000688" depart="10083" fromLonLat="-8.594577,41.166945" toLonLat="-8.608041,41.147316" />
  <trip id="1385606938620000473" depart="10138" fromLonLat="-8.600139,41.182713" toLonLat="-8.577369,41.191146" />